C:\Users\littledeer\Downloads\1WM1_PTB.pdb
 OpenBabel05211310143D

 16 17  0  0  1  0  0  0  0  0999 V2000
   18.6800   -0.4760   -9.3240 N   0  0  0  0  0  0  0  0  0  0  0  0
   19.2460    0.2360   -8.1280 C   0  0  2  0  0  0  0  0  0  0  0  0
   20.7360   -0.0180   -7.9670 C   0  0  0  0  0  0  0  0  0  0  0  0
   21.1800   -1.1050   -7.6480 O   0  0  0  0  0  0  0  0  0  0  0  0
   18.4130   -0.1730   -6.9120 C   0  0  0  0  0  0  0  0  0  0  0  0
   17.0900   -0.6470   -7.4630 C   0  0  0  0  0  0  0  0  0  0  0  0
   17.3560   -1.0600   -8.9040 C   0  0  0  0  0  0  0  0  0  0  0  0
   21.5840    1.1390   -8.1950 C   0  0  0  0  0  0  0  0  0  0  0  0
   21.2760    2.3710   -8.6440 N   0  0  0  0  0  0  0  0  0  0  0  0
   22.3680    3.1040   -8.6820 N   0  0  0  0  0  0  0  0  0  0  0  0
   23.4300    2.3720   -8.2560 C   0  0  0  0  0  0  0  0  0  0  0  0
   22.9740    1.0760   -7.9250 O   0  0  0  0  0  0  0  0  0  0  0  0
   24.8840    2.7160   -8.1010 C   0  0  0  0  0  0  0  0  0  0  0  0
   25.0010    4.0230   -7.3180 C   0  0  0  0  0  0  0  0  0  0  0  0
   25.5060    2.8940   -9.4810 C   0  0  0  0  0  0  0  0  0  0  0  0
   25.6000    1.5920   -7.3540 C   0  0  0  0  0  0  0  0  0  0  0  0
  1  7  1  0  0  0  0
  1  2  1  0  0  0  0
  2  3  1  1  0  0  0
  2  5  1  0  0  0  0
  3  4  2  0  0  0  0
  6  5  1  0  0  0  0
  7  6  1  0  0  0  0
  8  3  1  0  0  0  0
  8 12  1  0  0  0  0
  9  8  2  0  0  0  0
 10  9  1  0  0  0  0
 10 11  2  0  0  0  0
 11 13  1  0  0  0  0
 11 12  1  0  0  0  0
 13 16  1  0  0  0  0
 13 14  1  0  0  0  0
 15 13  1  0  0  0  0
M  END
